/*--------------------------------*- C++ -*----------------------------------*\
| =========                 |                                                 |
| \\      /  F ield         | OpenFOAM: The Open Source CFD Toolbox           |
|  \\    /   O peration     | Version:  2.3.0                                 |
|   \\  /    A nd           | Web:      www.OpenFOAM.org                      |
|    \\/     M anipulation  |                                                 |
\*---------------------------------------------------------------------------*/
FoamFile
{
    version     2.0;
    format      ascii;
    class       volVectorField;
    object      U;
}
// * * * * * * * * * * * * * * * * * * * * * * * * * * * * * * * * * * * * * //

dimensions      [0 1 -1 0 0 0 0];

internalField   uniform (0 0 0);

boundaryField
{
    inlet
    {
        type            fixedValue;
        value           uniform (0 -39.13 0);
    }

    outlet
    {
        type            fixedValue;
        value           uniform (50.825 0 27.733);
    }

    wallShroud
    {
        type slip;
// 			type            partialSlip;
// 			valueFraction 0.0;
//         value           uniform (0 0 0);
    }

    wallHub
    {
			type slip;
// 			type            partialSlip;
// 			valueFraction 0.0;
//         value           uniform (0 0 0);
    }

    front
    {
        type            wedge;
    }
    back
    {
        type            wedge;
    }
}

// ************************************************************************* //
