// -*- C++ -*-
// File generated by PyFoam - sorry for the ugliness

FoamFile
{
 version 2.0;
 format ascii;
 class dictionary;
 object blockMeshDict;
}

convertToMeters 1;

vertices
  (

(0.003 0.005 3e-05)
(0.00300646 0.00474688 3.00646e-05)
(0.00302584 0.00450033 3.02584e-05)
(0.00305814 0.00426036 3.05814e-05)
(0.00310336 0.00402696 3.10336e-05)
(0.0031615 0.00380013 3.1615e-05)
(0.00323256 0.00357988 3.23256e-05)
(0.00331654 0.00336621 3.31654e-05)
(0.00341344 0.00315911 3.41344e-05)
(0.00352326 0.00295858 3.52326e-05)
(0.003646 0.00276463 3.646e-05)
(0.00378166 0.00257725 3.78166e-05)
(0.00393023 0.00239645 3.93023e-05)
(0.00409173 0.00222222 4.09173e-05)
(0.00426615 0.00205457 4.26615e-05)
(0.00445349 0.00189349 4.45349e-05)
(0.00465375 0.00173899 4.65375e-05)
(0.00486693 0.00159106 4.86693e-05)
(0.00509303 0.0014497 5.09303e-05)
(0.00533205 0.00131492 5.33205e-05)
(0.00558398 0.00118672 5.58398e-05)
(0.00584884 0.00106509 5.84884e-05)
(0.00612662 0.000950033 6.12662e-05)
(0.00641732 0.000841552 6.41732e-05)
(0.00672094 0.000739645 6.72094e-05)
(0.00703748 0.000644313 7.03748e-05)
(0.00736693 0.000555556 7.36693e-05)
(0.00770931 0.000473373 7.70931e-05)
(0.00806461 0.000397765 8.06461e-05)
(0.00843283 0.000328731 8.43283e-05)
(0.00881397 0.000266272 8.81397e-05)
(0.00920802 0.000210388 9.20802e-05)
(0.009615 0.000161078 9.615e-05)
(0.0100349 0.000118343 0.000100349)
(0.0104677 8.21828e-05 0.000104677)
(0.0109135 5.2597e-05 0.000109135)
(0.0113721 2.95858e-05 0.000113721)
(0.0118437 1.31492e-05 0.000118437)
(0.0123282 3.28731e-06 0.000123282)
(0.0128256 0 0.000128256)
(0.00318535 0.005 3.18535e-05)
(0.00319169 0.00474955 3.19169e-05)
(0.0032107 0.0045056 3.2107e-05)
(0.00324239 0.00426815 3.24239e-05)
(0.00328676 0.00403722 3.28676e-05)
(0.0033438 0.00381278 3.3438e-05)
(0.00341352 0.00359486 3.41352e-05)
(0.00349591 0.00338344 3.49591e-05)
(0.00359099 0.00317852 3.59099e-05)
(0.00369873 0.00298011 3.69873e-05)
(0.00381916 0.0027882 3.81916e-05)
(0.00395226 0.0026028 3.95226e-05)
(0.00409803 0.00242391 4.09803e-05)
(0.00425649 0.00225152 4.25649e-05)
(0.00442762 0.00208563 4.42762e-05)
(0.00461142 0.00192625 4.61142e-05)
(0.0048079 0.00177338 4.8079e-05)
(0.00501706 0.00162701 5.01706e-05)
(0.00523889 0.00148714 5.23889e-05)
(0.0054734 0.00135379 5.4734e-05)
(0.00572059 0.00122693 5.72059e-05)
(0.00598045 0.00110658 5.98045e-05)
(0.00625299 0.000992742 6.25299e-05)
(0.0065382 0.000885404 6.5382e-05)
(0.00683609 0.000784572 6.83609e-05)
(0.00714666 0.000690246 7.14666e-05)
(0.0074699 0.000602424 7.4699e-05)
(0.00780582 0.000521108 7.80582e-05)
(0.00815442 0.000446297 8.15442e-05)
(0.00851569 0.000377992 8.51569e-05)
(0.00888964 0.000316191 8.88964e-05)
(0.00927626 0.000260896 9.27626e-05)
(0.00967556 0.000212107 9.67556e-05)
(0.0100875 0.000169822 0.000100875)
(0.0105122 0.000134043 0.000105122)
(0.0109495 0.000104769 0.000109495)
(0.0113995 8.2001e-05 0.000113995)
(0.0118622 6.57378e-05 0.000118622)
(0.0123376 5.59798e-05 0.000123376)
(0.0128256 5.27272e-05 0.000128256)
(0.00337069 0.005 3.37069e-05)
(0.00337691 0.00475222 3.37691e-05)
(0.00339556 0.00451087 3.39556e-05)
(0.00342664 0.00427595 3.42664e-05)
(0.00347015 0.00404748 3.47015e-05)
(0.0035261 0.00382544 3.5261e-05)
(0.00359448 0.00360983 3.59448e-05)
(0.00367529 0.00340066 3.67529e-05)
(0.00376853 0.00319793 3.76853e-05)
(0.00387421 0.00300164 3.87421e-05)
(0.00399232 0.00281177 3.99232e-05)
(0.00412286 0.00262835 4.12286e-05)
(0.00426583 0.00245136 4.26583e-05)
(0.00442124 0.00228081 4.42124e-05)
(0.00458908 0.00211669 4.58908e-05)
(0.00476935 0.00195901 4.76935e-05)
(0.00496205 0.00180777 4.96205e-05)
(0.00516719 0.00166296 5.16719e-05)
(0.00538476 0.00152458 5.38476e-05)
(0.00561476 0.00139265 5.61476e-05)
(0.00585719 0.00126714 5.85719e-05)
(0.00611206 0.00114808 6.11206e-05)
(0.00637936 0.00103545 6.37936e-05)
(0.00665909 0.000929257 6.65909e-05)
(0.00695125 0.0008295 6.95125e-05)
(0.00725585 0.000736178 7.25585e-05)
(0.00757288 0.000649293 7.57288e-05)
(0.00790234 0.000568843 7.90234e-05)
(0.00824423 0.00049483 8.24423e-05)
(0.00859856 0.000427252 8.59856e-05)
(0.00896531 0.000366111 8.96531e-05)
(0.0093445 0.000311405 9.3445e-05)
(0.00973613 0.000263135 9.73613e-05)
(0.0101402 0.000221302 0.000101402)
(0.0105567 0.000185904 0.000105567)
(0.0109856 0.000156942 0.000109856)
(0.0114269 0.000134416 0.000114269)
(0.0118807 0.000118326 0.000118807)
(0.012347 0.000108672 0.00012347)
(0.0128256 0.000105454 0.000128256)
(0.00355604 0.005 3.55604e-05)
(0.00356214 0.00475488 3.56214e-05)
(0.00358042 0.00451614 3.58042e-05)
(0.00361089 0.00428375 3.61089e-05)
(0.00365355 0.00405774 3.65355e-05)
(0.0037084 0.00383809 3.7084e-05)
(0.00377544 0.00362481 3.77544e-05)
(0.00385467 0.00341789 3.85467e-05)
(0.00394608 0.00321734 3.94608e-05)
(0.00404969 0.00302316 4.04969e-05)
(0.00416548 0.00283535 4.16548e-05)
(0.00429346 0.0026539 4.29346e-05)
(0.00443363 0.00247882 4.43363e-05)
(0.00458599 0.0023101 4.58599e-05)
(0.00475054 0.00214775 4.75054e-05)
(0.00492728 0.00199177 4.92728e-05)
(0.0051162 0.00184215 5.1162e-05)
(0.00531732 0.0016989 5.31732e-05)
(0.00553062 0.00156202 5.53062e-05)
(0.00575611 0.00143151 5.75611e-05)
(0.0059938 0.00130736 5.9938e-05)
(0.00624367 0.00118957 6.24367e-05)
(0.00650572 0.00107816 6.50572e-05)
(0.00677997 0.00097311 6.77997e-05)
(0.00706641 0.000874427 7.06641e-05)
(0.00736503 0.000782111 7.36503e-05)
(0.00767585 0.000696161 7.67585e-05)
(0.00799885 0.000616579 7.99885e-05)
(0.00833404 0.000543362 8.33404e-05)
(0.00868142 0.000476513 8.68142e-05)
(0.00904099 0.00041603 9.04099e-05)
(0.00941275 0.000361914 9.41275e-05)
(0.00979669 0.000314164 9.79669e-05)
(0.0101928 0.000272781 0.000101928)
(0.0106012 0.000237764 0.000106012)
(0.0110217 0.000209115 0.000110217)
(0.0114544 0.000186831 0.000114544)
(0.0118993 0.000170915 0.000118993)
(0.0123563 0.000161365 0.000123563)
(0.0128256 0.000158182 0.000128256)
(0.00374139 0.005 3.74139e-05)
(0.00374736 0.00475755 3.74736e-05)
(0.00376528 0.00452141 3.76528e-05)
(0.00379514 0.00429155 3.79514e-05)
(0.00383695 0.004068 3.83695e-05)
(0.0038907 0.00385074 3.8907e-05)
(0.0039564 0.00363978 3.9564e-05)
(0.00403404 0.00343512 4.03404e-05)
(0.00412363 0.00323676 4.12363e-05)
(0.00422516 0.00304469 4.22516e-05)
(0.00433864 0.00285892 4.33864e-05)
(0.00446407 0.00267945 4.46407e-05)
(0.00460143 0.00250627 4.60143e-05)
(0.00475075 0.00233939 4.75075e-05)
(0.004912 0.00217881 4.912e-05)
(0.00508521 0.00202453 5.08521e-05)
(0.00527036 0.00187654 5.27036e-05)
(0.00546745 0.00173485 5.46745e-05)
(0.00567649 0.00159946 5.67649e-05)
(0.00589747 0.00147037 5.89747e-05)
(0.0061304 0.00134757 6.1304e-05)
(0.00637527 0.00123107 6.37527e-05)
(0.00663209 0.00112087 6.63209e-05)
(0.00690086 0.00101696 6.90086e-05)
(0.00718156 0.000919354 7.18156e-05)
(0.00747422 0.000828043 7.47422e-05)
(0.00777882 0.00074303 7.77882e-05)
(0.00809536 0.000664314 8.09536e-05)
(0.00842385 0.000591895 8.42385e-05)
(0.00876428 0.000525773 8.76428e-05)
(0.00911666 0.000465949 9.11666e-05)
(0.00948099 0.000412422 9.48099e-05)
(0.00985726 0.000365192 9.85726e-05)
(0.0102455 0.00032426 0.000102455)
(0.0106456 0.000289625 0.000106456)
(0.0110577 0.000261287 0.000110577)
(0.0114818 0.000239247 0.000114818)
(0.0119178 0.000223503 0.000119178)
(0.0123657 0.000214057 0.000123657)
(0.0128256 0.000210909 0.000128256)
(0.00392674 0.005 3.92674e-05)
(0.00393259 0.00476022 3.93259e-05)
(0.00395014 0.00452667 3.95014e-05)
(0.00397939 0.00429935 3.97939e-05)
(0.00402035 0.00407826 4.02035e-05)
(0.004073 0.0038634 4.073e-05)
(0.00413736 0.00365476 4.13736e-05)
(0.00421342 0.00345235 4.21342e-05)
(0.00430118 0.00325617 4.30118e-05)
(0.00440064 0.00306622 4.40064e-05)
(0.0045118 0.00288249 4.5118e-05)
(0.00463467 0.002705 4.63467e-05)
(0.00476923 0.00253373 4.76923e-05)
(0.0049155 0.00236869 4.9155e-05)
(0.00507347 0.00220987 5.07347e-05)
(0.00524314 0.00205729 5.24314e-05)
(0.00542451 0.00191093 5.42451e-05)
(0.00561758 0.0017708 5.61758e-05)
(0.00582235 0.0016369 5.82235e-05)
(0.00603883 0.00150923 6.03883e-05)
(0.006267 0.00138778 6.267e-05)
(0.00650688 0.00127257 6.50688e-05)
(0.00675846 0.00116358 6.75846e-05)
(0.00702174 0.00106081 7.02174e-05)
(0.00729672 0.000964281 7.29672e-05)
(0.0075834 0.000873976 7.5834e-05)
(0.00788179 0.000789899 7.88179e-05)
(0.00819187 0.000712049 8.19187e-05)
(0.00851366 0.000640427 8.51366e-05)
(0.00884715 0.000575034 8.84715e-05)
(0.00919234 0.000515868 9.19234e-05)
(0.00954923 0.000462931 9.54923e-05)
(0.00991782 0.000416221 9.91782e-05)
(0.0102981 0.000375739 0.000102981)
(0.0106901 0.000341485 0.000106901)
(0.0110938 0.00031346 0.000110938)
(0.0115092 0.000291662 0.000115092)
(0.0119363 0.000276092 0.000119363)
(0.0123751 0.00026675 0.000123751)
(0.0128256 0.000263636 0.000128256)
(0.00411208 0.005 4.11208e-05)
(0.00411781 0.00476289 4.11781e-05)
(0.004135 0.00453194 4.135e-05)
(0.00416364 0.00430715 4.16364e-05)
(0.00420375 0.00408852 4.20375e-05)
(0.0042553 0.00387605 4.2553e-05)
(0.00431832 0.00366974 4.31832e-05)
(0.0043928 0.00346958 4.3928e-05)
(0.00447873 0.00327558 4.47873e-05)
(0.00457612 0.00308775 4.57612e-05)
(0.00468497 0.00290607 4.68497e-05)
(0.00480527 0.00273055 4.80527e-05)
(0.00493703 0.00256118 4.93703e-05)
(0.00508025 0.00239798 5.08025e-05)
(0.00523493 0.00224093 5.23493e-05)
(0.00540107 0.00209005 5.40107e-05)
(0.00557866 0.00194532 5.57866e-05)
(0.00576771 0.00180675 5.76771e-05)
(0.00596822 0.00167434 5.96822e-05)
(0.00618018 0.00154809 6.18018e-05)
(0.00640361 0.001428 6.40361e-05)
(0.00663849 0.00131406 6.63849e-05)
(0.00688483 0.00120628 6.88483e-05)
(0.00714262 0.00110467 7.14262e-05)
(0.00741188 0.00100921 7.41188e-05)
(0.00769259 0.000919909 7.69259e-05)
(0.00798476 0.000836767 7.98476e-05)
(0.00828839 0.000759784 8.28839e-05)
(0.00860347 0.00068896 8.60347e-05)
(0.00893001 0.000624294 8.93001e-05)
(0.00926801 0.000565787 9.26801e-05)
(0.00961747 0.000513439 9.61747e-05)
(0.00997838 0.000467249 9.97838e-05)
(0.0103508 0.000427218 0.000103508)
(0.0107346 0.000393346 0.000107346)
(0.0111299 0.000365632 0.000111299)
(0.0115366 0.000344077 0.000115366)
(0.0119548 0.00032868 0.000119548)
(0.0123845 0.000319442 0.000123845)
(0.0128256 0.000316363 0.000128256)
(0.00429743 0.005 4.29743e-05)
(0.00430304 0.00476556 4.30304e-05)
(0.00431986 0.00453721 4.31986e-05)
(0.00434789 0.00431495 4.34789e-05)
(0.00438714 0.00409878 4.38714e-05)
(0.00443761 0.0038887 4.43761e-05)
(0.00449928 0.00368471 4.49928e-05)
(0.00457217 0.00348681 4.57217e-05)
(0.00465628 0.003295 4.65628e-05)
(0.00475159 0.00310927 4.75159e-05)
(0.00485813 0.00292964 4.85813e-05)
(0.00497587 0.00275609 4.97587e-05)
(0.00510483 0.00258864 5.10483e-05)
(0.00524501 0.00242727 5.24501e-05)
(0.00539639 0.002272 5.39639e-05)
(0.005559 0.00212281 5.559e-05)
(0.00573281 0.00197971 5.73281e-05)
(0.00591784 0.0018427 5.91784e-05)
(0.00611408 0.00171178 6.11408e-05)
(0.00632154 0.00158695 6.32154e-05)
(0.00654021 0.00146821 6.54021e-05)
(0.0067701 0.00135556 6.7701e-05)
(0.00701119 0.00124899 7.01119e-05)
(0.00726351 0.00114852 7.26351e-05)
(0.00752703 0.00105414 7.52703e-05)
(0.00780177 0.000965841 7.80177e-05)
(0.00808773 0.000883636 8.08773e-05)
(0.0083849 0.00080752 8.3849e-05)
(0.00869328 0.000737493 8.69328e-05)
(0.00901288 0.000673555 9.01288e-05)
(0.00934369 0.000615707 9.34369e-05)
(0.00968571 0.000563948 9.68571e-05)
(0.0100389 0.000518278 0.000100389)
(0.0104034 0.000478698 0.000104034)
(0.0107791 0.000445206 0.000107791)
(0.0111659 0.000417805 0.000111659)
(0.011564 0.000396492 0.00011564)
(0.0119733 0.000381269 0.000119733)
(0.0123939 0.000372135 0.000123939)
(0.0128256 0.00036909 0.000128256)
(0.00448278 0.005 4.48278e-05)
(0.00448826 0.00476823 4.48826e-05)
(0.00450472 0.00454248 4.50472e-05)
(0.00453214 0.00432275 4.53214e-05)
(0.00457054 0.00410905 4.57054e-05)
(0.00461991 0.00390136 4.61991e-05)
(0.00468024 0.00369969 4.68024e-05)
(0.00475155 0.00350404 4.75155e-05)
(0.00483382 0.00331441 4.83382e-05)
(0.00492707 0.0031308 4.92707e-05)
(0.00503129 0.00295321 5.03129e-05)
(0.00514647 0.00278164 5.14647e-05)
(0.00527263 0.00261609 5.27263e-05)
(0.00540976 0.00245657 5.40976e-05)
(0.00555786 0.00230306 5.55786e-05)
(0.00571692 0.00215557 5.71692e-05)
(0.00588696 0.0020141 5.88696e-05)
(0.00606797 0.00187865 6.06797e-05)
(0.00625995 0.00174922 6.25995e-05)
(0.0064629 0.00162581 6.4629e-05)
(0.00667682 0.00150842 6.67682e-05)
(0.0069017 0.00139705 6.9017e-05)
(0.00713756 0.0012917 7.13756e-05)
(0.00738439 0.00119237 7.38439e-05)
(0.00764219 0.00109906 7.64219e-05)
(0.00791096 0.00101177 7.91096e-05)
(0.0081907 0.000930504 8.1907e-05)
(0.00848141 0.000855255 8.48141e-05)
(0.00878309 0.000786025 8.78309e-05)
(0.00909574 0.000722816 9.09574e-05)
(0.00941936 0.000665626 9.41936e-05)
(0.00975395 0.000614456 9.75395e-05)
(0.0100995 0.000569306 0.000100995)
(0.010456 0.000530177 0.00010456)
(0.0108235 0.000497067 0.000108235)
(0.011202 0.000469977 0.00011202)
(0.0115915 0.000448907 0.000115915)
(0.0119919 0.000433857 0.000119919)
(0.0124032 0.000424827 0.000124032)
(0.0128256 0.000421817 0.000128256)
(0.00466813 0.005 4.66813e-05)
(0.00467349 0.0047709 4.67349e-05)
(0.00468958 0.00454775 4.68958e-05)
(0.0047164 0.00433055 4.7164e-05)
(0.00475394 0.00411931 4.75394e-05)
(0.00480221 0.00391401 4.80221e-05)
(0.0048612 0.00371466 4.8612e-05)
(0.00493092 0.00352127 4.93092e-05)
(0.00501137 0.00333382 5.01137e-05)
(0.00510255 0.00315233 5.10255e-05)
(0.00520445 0.00297679 5.20445e-05)
(0.00531708 0.00280719 5.31708e-05)
(0.00544043 0.00264355 5.44043e-05)
(0.00557451 0.00248586 5.57451e-05)
(0.00571932 0.00233412 5.71932e-05)
(0.00587485 0.00218833 5.87485e-05)
(0.00604111 0.00204849 6.04111e-05)
(0.0062181 0.0019146 6.2181e-05)
(0.00640581 0.00178666 6.40581e-05)
(0.00660425 0.00166467 6.60425e-05)
(0.00681342 0.00154863 6.81342e-05)
(0.00703331 0.00143855 7.03331e-05)
(0.00726393 0.00133441 7.26393e-05)
(0.00750528 0.00123623 7.50528e-05)
(0.00775735 0.00114399 7.75735e-05)
(0.00802015 0.00105771 8.02015e-05)
(0.00829367 0.000977373 8.29367e-05)
(0.00857792 0.00090299 8.57792e-05)
(0.0088729 0.000834558 8.8729e-05)
(0.0091786 0.000772076 9.1786e-05)
(0.00949503 0.000715545 9.49503e-05)
(0.00982219 0.000664965 9.82219e-05)
(0.0101601 0.000620335 0.000101601)
(0.0105087 0.000581656 0.000105087)
(0.010868 0.000548927 0.00010868)
(0.0112381 0.00052215 0.000112381)
(0.0116189 0.000501322 0.000116189)
(0.0120104 0.000486446 0.000120104)
(0.0124126 0.00047752 0.000124126)
(0.0128256 0.000474545 0.000128256)
(0.00485347 0.005 4.85347e-05)
(0.00485872 0.00477357 4.85872e-05)
(0.00487444 0.00455302 4.87444e-05)
(0.00490065 0.00433835 4.90065e-05)
(0.00493734 0.00412957 4.93734e-05)
(0.00498451 0.00392666 4.98451e-05)
(0.00504216 0.00372964 5.04216e-05)
(0.0051103 0.0035385 5.1103e-05)
(0.00518892 0.00335324 5.18892e-05)
(0.00527802 0.00317386 5.27802e-05)
(0.00537761 0.00300036 5.37761e-05)
(0.00548768 0.00283274 5.48768e-05)
(0.00560823 0.00267101 5.60823e-05)
(0.00573927 0.00251515 5.73927e-05)
(0.00588078 0.00236518 5.88078e-05)
(0.00603278 0.00222109 6.03278e-05)
(0.00619527 0.00208288 6.19527e-05)
(0.00636823 0.00195055 6.36823e-05)
(0.00655168 0.0018241 6.55168e-05)
(0.00674561 0.00170353 6.74561e-05)
(0.00695002 0.00158885 6.95002e-05)
(0.00716492 0.00148004 7.16492e-05)
(0.0073903 0.00137712 7.3903e-05)
(0.00762616 0.00128008 7.62616e-05)
(0.0078725 0.00118892 7.8725e-05)
(0.00812933 0.00110364 8.12933e-05)
(0.00839664 0.00102424 8.39664e-05)
(0.00867443 0.000950725 8.67443e-05)
(0.00896271 0.00088309 8.96271e-05)
(0.00926147 0.000821337 9.26147e-05)
(0.00957071 0.000765464 9.57071e-05)
(0.00989043 0.000715473 9.89043e-05)
(0.0102206 0.000671364 0.000102206)
(0.0105613 0.000633135 0.000105613)
(0.0109125 0.000600788 0.000109125)
(0.0112742 0.000574322 0.000112742)
(0.0116463 0.000553738 0.000116463)
(0.0120289 0.000539034 0.000120289)
(0.012422 0.000530212 0.00012422)
(0.0128256 0.000527272 0.000128256)
(0.00503882 0.005 5.03882e-05)
(0.00504394 0.00477624 5.04394e-05)
(0.0050593 0.00455829 5.0593e-05)
(0.0050849 0.00434615 5.0849e-05)
(0.00512073 0.00413983 5.12073e-05)
(0.00516681 0.00393932 5.16681e-05)
(0.00522312 0.00374462 5.22312e-05)
(0.00528968 0.00355573 5.28968e-05)
(0.00536647 0.00337265 5.36647e-05)
(0.0054535 0.00319538 5.4535e-05)
(0.00555077 0.00302393 5.55077e-05)
(0.00565828 0.00285829 5.65828e-05)
(0.00577603 0.00269846 5.77603e-05)
(0.00590402 0.00254444 5.90402e-05)
(0.00604225 0.00239624 6.04225e-05)
(0.00619071 0.00225385 6.19071e-05)
(0.00634942 0.00211726 6.34942e-05)
(0.00651836 0.00198649 6.51836e-05)
(0.00669754 0.00186154 6.69754e-05)
(0.00688697 0.00174239 6.88697e-05)
(0.00708663 0.00162906 7.08663e-05)
(0.00729653 0.00152154 7.29653e-05)
(0.00751667 0.00141983 7.51667e-05)
(0.00774704 0.00132393 7.74704e-05)
(0.00798766 0.00123385 7.98766e-05)
(0.00823852 0.00114957 8.23852e-05)
(0.00849961 0.00107111 8.49961e-05)
(0.00877095 0.000998461 8.77095e-05)
(0.00905252 0.000931623 9.05252e-05)
(0.00934433 0.000870597 9.34433e-05)
(0.00964638 0.000815384 9.64638e-05)
(0.00995867 0.000765982 9.95867e-05)
(0.0102812 0.000722392 0.000102812)
(0.010614 0.000684614 0.00010614)
(0.010957 0.000652648 0.00010957)
(0.0113102 0.000626495 0.000113102)
(0.0116737 0.000606153 0.000116737)
(0.0120474 0.000591623 0.000120474)
(0.0124314 0.000582905 0.000124314)
(0.0128256 0.000579999 0.000128256)
(0.00522417 0.005 5.22417e-05)
(0.00522917 0.00477891 5.22917e-05)
(0.00524416 0.00456356 5.24416e-05)
(0.00526915 0.00435395 5.26915e-05)
(0.00530413 0.00415009 5.30413e-05)
(0.00534911 0.00395197 5.34911e-05)
(0.00540408 0.00375959 5.40408e-05)
(0.00546905 0.00357296 5.46905e-05)
(0.00554402 0.00339206 5.54402e-05)
(0.00562898 0.00321691 5.62898e-05)
(0.00572393 0.0030475 5.72393e-05)
(0.00582888 0.00288384 5.82888e-05)
(0.00594383 0.00272592 5.94383e-05)
(0.00606877 0.00257374 6.06877e-05)
(0.00620371 0.0024273 6.20371e-05)
(0.00634864 0.0022866 6.34864e-05)
(0.00650357 0.00215165 6.50357e-05)
(0.00666849 0.00202244 6.66849e-05)
(0.00684341 0.00189898 6.84341e-05)
(0.00702832 0.00178125 7.02832e-05)
(0.00722323 0.00166927 7.22323e-05)
(0.00742813 0.00156303 7.42813e-05)
(0.00764303 0.00146254 7.64303e-05)
(0.00786793 0.00136778 7.86793e-05)
(0.00810282 0.00127877 8.10282e-05)
(0.0083477 0.0011955 8.3477e-05)
(0.00860258 0.00111798 8.60258e-05)
(0.00886746 0.0010462 8.86746e-05)
(0.00914233 0.000980155 9.14233e-05)
(0.0094272 0.000919858 9.4272e-05)
(0.00972206 0.000865303 9.72206e-05)
(0.0100269 0.00081649 0.000100269)
(0.0103418 0.000773421 0.000103418)
(0.0106666 0.000736094 0.000106666)
(0.0110015 0.000704509 0.000110015)
(0.0113463 0.000678667 0.000113463)
(0.0117011 0.000658568 0.000117011)
(0.012066 0.000644211 0.00012066)
(0.0124408 0.000635597 0.000124408)
(0.0128256 0.000632726 0.000128256)
(0.00540952 0.005 5.40952e-05)
(0.00541439 0.00478158 5.41439e-05)
(0.00542902 0.00456883 5.42902e-05)
(0.0054534 0.00436175 5.4534e-05)
(0.00548753 0.00416035 5.48753e-05)
(0.00553141 0.00396462 5.53141e-05)
(0.00558504 0.00377457 5.58504e-05)
(0.00564843 0.00359018 5.64843e-05)
(0.00572157 0.00341148 5.72157e-05)
(0.00580446 0.00323844 5.80446e-05)
(0.0058971 0.00307108 5.8971e-05)
(0.00599949 0.00290939 5.99949e-05)
(0.00611163 0.00275337 6.11163e-05)
(0.00623353 0.00260303 6.23353e-05)
(0.00636517 0.00245836 6.36517e-05)
(0.00650657 0.00231936 6.50657e-05)
(0.00665772 0.00218604 6.65772e-05)
(0.00681862 0.00205839 6.81862e-05)
(0.00698927 0.00193642 6.98927e-05)
(0.00716968 0.00182011 7.16968e-05)
(0.00735983 0.00170948 7.35983e-05)
(0.00755974 0.00160453 7.55974e-05)
(0.0077694 0.00150525 7.7694e-05)
(0.00798881 0.00141164 7.98881e-05)
(0.00821797 0.0013237 8.21797e-05)
(0.00845689 0.00124144 8.45689e-05)
(0.00870555 0.00116485 8.70555e-05)
(0.00896397 0.00109393 8.96397e-05)
(0.00923214 0.00102869 9.23214e-05)
(0.00951006 0.000969118 9.51006e-05)
(0.00979773 0.000915222 9.79773e-05)
(0.0100952 0.000866999 0.000100952)
(0.0104023 0.000824449 0.000104023)
(0.0107193 0.000787573 0.000107193)
(0.0110459 0.00075637 0.000110459)
(0.0113824 0.00073084 0.000113824)
(0.0117285 0.000710983 0.000117285)
(0.0120845 0.0006968 0.000120845)
(0.0124502 0.00068829 0.000124502)
(0.0128256 0.000685453 0.000128256)
(0.00559486 0.005 5.59486e-05)
(0.00559962 0.00478425 5.59962e-05)
(0.00561388 0.0045741 5.61388e-05)
(0.00563765 0.00436955 5.63765e-05)
(0.00567093 0.00417061 5.67093e-05)
(0.00571371 0.00397728 5.71371e-05)
(0.00576601 0.00378954 5.76601e-05)
(0.00582781 0.00360741 5.82781e-05)
(0.00589912 0.00343089 5.89912e-05)
(0.00597993 0.00325997 5.97993e-05)
(0.00607026 0.00309465 6.07026e-05)
(0.00617009 0.00293494 6.17009e-05)
(0.00627943 0.00278083 6.27943e-05)
(0.00639828 0.00263232 6.39828e-05)
(0.00652663 0.00248942 6.52663e-05)
(0.0066645 0.00235212 6.6645e-05)
(0.00681187 0.00222043 6.81187e-05)
(0.00696875 0.00209434 6.96875e-05)
(0.00713514 0.00197386 7.13514e-05)
(0.00731103 0.00185897 7.31103e-05)
(0.00749644 0.0017497 7.49644e-05)
(0.00769135 0.00164602 7.69135e-05)
(0.00789577 0.00154795 7.89577e-05)
(0.0081097 0.00145549 8.1097e-05)
(0.00833313 0.00136863 8.33313e-05)
(0.00856607 0.00128737 8.56607e-05)
(0.00880852 0.00121172 8.80852e-05)
(0.00906048 0.00114167 9.06048e-05)
(0.00932195 0.00107722 9.32195e-05)
(0.00959292 0.00101838 9.59292e-05)
(0.00987341 0.000965141 9.87341e-05)
(0.0101634 0.000917507 0.000101634)
(0.0104629 0.000875478 0.000104629)
(0.0107719 0.000839052 0.000107719)
(0.0110904 0.00080823 0.000110904)
(0.0114184 0.000783012 0.000114184)
(0.011756 0.000763398 0.00011756)
(0.012103 0.000749388 0.00012103)
(0.0124595 0.000740982 0.000124595)
(0.0128256 0.00073818 0.000128256)
(0.00578021 0.005 5.78021e-05)
(0.00578484 0.00478692 5.78484e-05)
(0.00579874 0.00457937 5.79874e-05)
(0.0058219 0.00437735 5.8219e-05)
(0.00585432 0.00418087 5.85432e-05)
(0.00589601 0.00398993 5.89601e-05)
(0.00594697 0.00380452 5.94697e-05)
(0.00600718 0.00362464 6.00718e-05)
(0.00607666 0.0034503 6.07666e-05)
(0.00615541 0.00328149 6.15541e-05)
(0.00624342 0.00311822 6.24342e-05)
(0.00634069 0.00296049 6.34069e-05)
(0.00644723 0.00280828 6.44723e-05)
(0.00656303 0.00266162 6.56303e-05)
(0.0066881 0.00252048 6.6881e-05)
(0.00682243 0.00238488 6.82243e-05)
(0.00696602 0.00225482 6.96602e-05)
(0.00711888 0.00213029 7.11888e-05)
(0.007281 0.0020113 7.281e-05)
(0.00745239 0.00189784 7.45239e-05)
(0.00763304 0.00178991 7.63304e-05)
(0.00782296 0.00168752 7.82296e-05)
(0.00802214 0.00159066 8.02214e-05)
(0.00823058 0.00149934 8.23058e-05)
(0.00844829 0.00141355 8.44829e-05)
(0.00867526 0.0013333 8.67526e-05)
(0.0089115 0.00125858 8.9115e-05)
(0.009157 0.0011894 9.157e-05)
(0.00941176 0.00112575 9.41176e-05)
(0.00967579 0.00106764 9.67579e-05)
(0.00994908 0.00101506 9.94908e-05)
(0.0102316 0.000968016 0.000102316)
(0.0105235 0.000926506 0.000105235)
(0.0108245 0.000890531 0.000108245)
(0.0111349 0.000860091 0.000111349)
(0.0114545 0.000835185 0.000114545)
(0.0117834 0.000815813 0.000117834)
(0.0121215 0.000801977 0.000121215)
(0.0124689 0.000793675 0.000124689)
(0.0128256 0.000790908 0.000128256)
(0.00596556 0.005 5.96556e-05)
(0.00597007 0.00478959 5.97007e-05)
(0.0059836 0.00458464 5.9836e-05)
(0.00600615 0.00438515 6.00615e-05)
(0.00603772 0.00419113 6.03772e-05)
(0.00607831 0.00400258 6.07831e-05)
(0.00612793 0.00381949 6.12793e-05)
(0.00618656 0.00364187 6.18656e-05)
(0.00625421 0.00346971 6.25421e-05)
(0.00633089 0.00330302 6.33089e-05)
(0.00641658 0.0031418 6.41658e-05)
(0.00651129 0.00298603 6.51129e-05)
(0.00661503 0.00283574 6.61503e-05)
(0.00672779 0.00269091 6.72779e-05)
(0.00684956 0.00255154 6.84956e-05)
(0.00698036 0.00241764 6.98036e-05)
(0.00712017 0.00228921 7.12017e-05)
(0.00726901 0.00216624 7.26901e-05)
(0.00742687 0.00204873 7.42687e-05)
(0.00759375 0.0019367 7.59375e-05)
(0.00776965 0.00183012 7.76965e-05)
(0.00795456 0.00172901 7.95456e-05)
(0.0081485 0.00163337 8.1485e-05)
(0.00835146 0.00154319 8.35146e-05)
(0.00856344 0.00145848 8.56344e-05)
(0.00878444 0.00137923 8.78444e-05)
(0.00901447 0.00130545 9.01447e-05)
(0.00925351 0.00123714 9.25351e-05)
(0.00950157 0.00117429 9.50157e-05)
(0.00975865 0.0011169 9.75865e-05)
(0.0100248 0.00106498 0.000100248)
(0.0102999 0.00101852 0.000102999)
(0.010584 0.000977535 0.00010584)
(0.0108772 0.00094201 0.000108772)
(0.0111794 0.000911951 0.000111794)
(0.0114906 0.000887357 0.000114906)
(0.0118108 0.000868229 0.000118108)
(0.01214 0.000854565 0.0001214)
(0.0124783 0.000846367 0.000124783)
(0.0128256 0.000843635 0.000128256)
(0.00615091 0.005 6.15091e-05)
(0.00615529 0.00479226 6.15529e-05)
(0.00616846 0.00458991 6.16846e-05)
(0.0061904 0.00439295 6.1904e-05)
(0.00622112 0.0042014 6.22112e-05)
(0.00626061 0.00401523 6.26061e-05)
(0.00630889 0.00383447 6.30889e-05)
(0.00636594 0.0036591 6.36594e-05)
(0.00643176 0.00348913 6.43176e-05)
(0.00650636 0.00332455 6.50636e-05)
(0.00658974 0.00316537 6.58974e-05)
(0.0066819 0.00301158 6.6819e-05)
(0.00678283 0.00286319 6.78283e-05)
(0.00689254 0.0027202 6.89254e-05)
(0.00701102 0.0025826 7.01102e-05)
(0.00713829 0.0024504 7.13829e-05)
(0.00727433 0.0023236 7.27433e-05)
(0.00741914 0.00220219 7.41914e-05)
(0.00757273 0.00208617 7.57273e-05)
(0.0077351 0.00197556 7.7351e-05)
(0.00790625 0.00187034 7.90625e-05)
(0.00808617 0.00177051 8.08617e-05)
(0.00827487 0.00167608 8.27487e-05)
(0.00847235 0.00158705 8.47235e-05)
(0.0086786 0.00150341 8.6786e-05)
(0.00889363 0.00142517 8.89363e-05)
(0.00911744 0.00135232 9.11744e-05)
(0.00935002 0.00128487 9.35002e-05)
(0.00959138 0.00122282 9.59138e-05)
(0.00984152 0.00116616 9.84152e-05)
(0.0101004 0.0011149 0.000101004)
(0.0103681 0.00106903 0.000103681)
(0.0106446 0.00102856 0.000106446)
(0.0109298 0.000993489 0.000109298)
(0.0112238 0.000963812 0.000112238)
(0.0115266 0.00093953 0.000115266)
(0.0118382 0.000920644 0.000118382)
(0.0121586 0.000907154 0.000121586)
(0.0124877 0.00089906 0.000124877)
(0.0128256 0.000896362 0.000128256)
(0.00633625 0.005 6.33625e-05)
(0.00634052 0.00479492 6.34052e-05)
(0.00635332 0.00459518 6.35332e-05)
(0.00637465 0.00440075 6.37465e-05)
(0.00640452 0.00421166 6.40452e-05)
(0.00644292 0.00402789 6.44292e-05)
(0.00648985 0.00384945 6.48985e-05)
(0.00654531 0.00367633 6.54531e-05)
(0.00660931 0.00350854 6.60931e-05)
(0.00668184 0.00334608 6.68184e-05)
(0.0067629 0.00318894 6.7629e-05)
(0.0068525 0.00303713 6.8525e-05)
(0.00695063 0.00289065 6.95063e-05)
(0.00705729 0.00274949 7.05729e-05)
(0.00717249 0.00261366 7.17249e-05)
(0.00729622 0.00248316 7.29622e-05)
(0.00742848 0.00235799 7.42848e-05)
(0.00756927 0.00223814 7.56927e-05)
(0.0077186 0.00212361 7.7186e-05)
(0.00787646 0.00201442 7.87646e-05)
(0.00804285 0.00191055 8.04285e-05)
(0.00821778 0.00181201 8.21778e-05)
(0.00840124 0.00171879 8.40124e-05)
(0.00859323 0.0016309 8.59323e-05)
(0.00879376 0.00154834 8.79376e-05)
(0.00900282 0.0014711 9.00282e-05)
(0.00922041 0.00139919 9.22041e-05)
(0.00944653 0.00133261 9.44653e-05)
(0.00968119 0.00127135 9.68119e-05)
(0.00992438 0.00121542 9.92438e-05)
(0.0101761 0.00116482 0.000101761)
(0.0104364 0.00111954 0.000104364)
(0.0107051 0.00107959 0.000107051)
(0.0109825 0.00104497 0.000109825)
(0.0112683 0.00101567 0.000112683)
(0.0115627 0.000991702 0.000115627)
(0.0118656 0.000973059 0.000118656)
(0.0121771 0.000959742 0.000121771)
(0.0124971 0.000951752 0.000124971)
(0.0128256 0.000949089 0.000128256)
(0.0065216 0.005 6.5216e-05)
(0.00652574 0.00479759 6.52574e-05)
(0.00653818 0.00460044 6.53818e-05)
(0.0065589 0.00440855 6.5589e-05)
(0.00658791 0.00422192 6.58791e-05)
(0.00662522 0.00404054 6.62522e-05)
(0.00667081 0.00386442 6.67081e-05)
(0.00672469 0.00369356 6.72469e-05)
(0.00678686 0.00352795 6.78686e-05)
(0.00685732 0.00336761 6.85732e-05)
(0.00693606 0.00321251 6.93606e-05)
(0.0070231 0.00306268 7.0231e-05)
(0.00711843 0.00291811 7.11843e-05)
(0.00722204 0.00277879 7.22204e-05)
(0.00733395 0.00264473 7.33395e-05)
(0.00745414 0.00251592 7.45414e-05)
(0.00758263 0.00239237 7.58263e-05)
(0.0077194 0.00227409 7.7194e-05)
(0.00786446 0.00216105 7.86446e-05)
(0.00801782 0.00205328 8.01782e-05)
(0.00817946 0.00195076 8.17946e-05)
(0.00834939 0.0018535 8.34939e-05)
(0.00852761 0.0017615 8.52761e-05)
(0.00871412 0.00167475 8.71412e-05)
(0.00890891 0.00159326 8.90891e-05)
(0.009112 0.00151703 9.112e-05)
(0.00932338 0.00144606 9.32338e-05)
(0.00954304 0.00138034 9.54304e-05)
(0.009771 0.00131988 9.771e-05)
(0.0100072 0.00126468 0.000100072)
(0.0102518 0.00121474 0.000102518)
(0.0105046 0.00117005 0.000105046)
(0.0107657 0.00113062 0.000107657)
(0.0110351 0.00109645 0.000110351)
(0.0113128 0.00106753 0.000113128)
(0.0115988 0.00104387 0.000115988)
(0.0118931 0.00102547 0.000118931)
(0.0121956 0.00101233 0.000121956)
(0.0125065 0.00100444 0.000125065)
(0.0128256 0.00100182 0.000128256)
(0.003 0.005 -3e-05)
(0.00300646 0.00474688 -3.00646e-05)
(0.00302584 0.00450033 -3.02584e-05)
(0.00305814 0.00426036 -3.05814e-05)
(0.00310336 0.00402696 -3.10336e-05)
(0.0031615 0.00380013 -3.1615e-05)
(0.00323256 0.00357988 -3.23256e-05)
(0.00331654 0.00336621 -3.31654e-05)
(0.00341344 0.00315911 -3.41344e-05)
(0.00352326 0.00295858 -3.52326e-05)
(0.003646 0.00276463 -3.646e-05)
(0.00378166 0.00257725 -3.78166e-05)
(0.00393023 0.00239645 -3.93023e-05)
(0.00409173 0.00222222 -4.09173e-05)
(0.00426615 0.00205457 -4.26615e-05)
(0.00445349 0.00189349 -4.45349e-05)
(0.00465375 0.00173899 -4.65375e-05)
(0.00486693 0.00159106 -4.86693e-05)
(0.00509303 0.0014497 -5.09303e-05)
(0.00533205 0.00131492 -5.33205e-05)
(0.00558398 0.00118672 -5.58398e-05)
(0.00584884 0.00106509 -5.84884e-05)
(0.00612662 0.000950033 -6.12662e-05)
(0.00641732 0.000841552 -6.41732e-05)
(0.00672094 0.000739645 -6.72094e-05)
(0.00703748 0.000644313 -7.03748e-05)
(0.00736693 0.000555556 -7.36693e-05)
(0.00770931 0.000473373 -7.70931e-05)
(0.00806461 0.000397765 -8.06461e-05)
(0.00843283 0.000328731 -8.43283e-05)
(0.00881397 0.000266272 -8.81397e-05)
(0.00920802 0.000210388 -9.20802e-05)
(0.009615 0.000161078 -9.615e-05)
(0.0100349 0.000118343 -0.000100349)
(0.0104677 8.21828e-05 -0.000104677)
(0.0109135 5.2597e-05 -0.000109135)